5

 H            -0.689712    1.51676    2.02485             1.77012    0.43038  -0.045422
 H               3.0363    1.06446     2.9303           -0.572017    1.25828   0.668012
 H             0.975778   0.935256    1.35348            0.956302   0.428697  -0.426285
 H              1.64322    2.12177 -0.0872166            0.500229  -0.997027   0.266474
 H             0.574133    0.65288    3.52808             1.19634   0.265998   -1.07314
